/*--------------------------------*- C++ -*----------------------------------*\
  =========                 |
  \\      /  F ield         | OpenFOAM: The Open Source CFD Toolbox
   \\    /   O peration     | Website:  https://openfoam.org
    \\  /    A nd           | Version:  6
     \\/     M anipulation  |
\*---------------------------------------------------------------------------*/
FoamFile
{
    version     2.0;
    format      ascii;
    class       dictionary;
    location    "constant";
    object      averagingProperties;
}
// * * * * * * * * * * * * * * * * * * * * * * * * * * * * * * * * * * * * * //

tStartAveraging              [0 0 1 0 0 0 0] 1.0; //insert start of time-averaging here


// writeTine debe ser divisible por (deltaT*nAveragingTimeSteps)
nAveragingTimeSteps              [0 0 0 0 0 0 0] 1; // inserte el intervalo nAveragingTimeSteps de promediado

computeBudget              [0 0 0 0 0 0 0] 1; // 1 Si 0 No

qDNSOrLES              [0 0 0 0 0 0 0] 1; // 1 es QDNS 2 es LES 

tStartBudget              [0 0 1 0 0 0 0] 1.0; //insert start of time-averaging here

LPT [0 0 0 0 0 0 0] 0;

// ************************************************************************* //
